%chk=Example2.chk
%mem=1Gb
# pbepbe/3-21g/auto opt 

Example2

0 1
 C                0    2.02651659    1.27159304    3.75359871
 C                0    3.41936459    1.27159304    3.75359871
 C                0    4.12782759    2.48007804    3.75359871
 C                0    3.41071459    3.70468704    3.75363671
 C                0    1.99158059    3.69535104    3.75366671
 C                0    1.31477059    2.46893304    3.75356371
 C                0    5.56688259    2.52216004    3.75366371
 C                0    4.11950059    4.95049204    3.75385571
 C                0    5.53858859    4.95981504    3.75389071
 C                0    6.23770659    3.70129404    3.75375271
 C               -1    6.21543159    6.18630504    3.75404771
 H                0    7.31561259    6.19917304    3.75401571
 C               -1    5.50370859    7.38357604    3.75419871
 C               -1    4.11079359    7.38357604    3.75422571
 C                0    3.40236759    6.17514004    3.75401771
 C                0    1.96328059    6.13301104    3.75380771
 C                0    1.29246459    4.95389304    3.75365271
 H                0    0.19189659    4.92583904    3.75312971
 H                0    1.42497359    7.09335904    3.75388971
 H                0    6.10504559    1.56176004    3.75336771
 H                0    1.48229859    0.31511004    3.75333571
 H                0    3.97041759    0.31930704    3.75350471
 H                0    0.21461359    2.45610104    3.75318371
 H                0    7.33825559    3.72923904    3.75346571
 H               -1    3.55981559    8.33593704    3.75424371
 C               -1    6.26513994    8.72216571    3.75416373
 C               -1    6.60027608    9.31572858    5.00218112
 C               -1    6.61538636    9.33316000    2.57561374
 C               -1    6.25025773    8.70532978    6.23790617
 C                0    7.30210179   10.54878688    5.01608621
 C                0    7.31598678   10.56388184    2.58888923
 H                0    6.35774921    8.87678514    1.60854226
 C               -1    6.58590001    9.30008754    7.42878402
 H               -1    5.70612435    7.74916945    6.21773201
 C                0    7.63714020   11.14239701    6.26374903
 C                0    7.65185180   11.15847938    3.77985349
 H                0    7.58545678   11.03414891    1.63173056
 C                0    7.28620591   10.53074733    7.44221963
 H               -1    6.31620885    8.82995364    8.38598347
 H                0    8.18121165   12.09866331    6.26365902
 H                0    8.19602570   12.11464464    3.79962989
 H                0    7.54381784   10.98723949    8.40925001
 Tv                10.00000000    0.00000000    0.00000000
 Tv                 0.00000000   13.00000000    0.00000000
 Tv                 0.00000000    0.00000000    8.50000000

